@<TRIPOS>MOLECULE
LIG
43 43 1
SMALL
USER_CHARGES
@<TRIPOS>ATOM
1	N1    -1.5110    -3.9230   -12.9840	N.3	1	noname	0.0106
2	C1    -1.1190    -5.3430   -13.1800	C.3	1	noname	0.0932
3	C2     0.1390    -5.8160   -12.4080	C.2	1	noname	0.0458
4	N2     0.0820    -5.6560   -11.0330	N.3	1	noname	-0.0737
5	O1     1.0920    -6.3840   -12.9110	O.2	1	noname	-0.2913
6	C3     1.0410    -6.3120   -10.1340	C.3	1	noname	0.0262
7	C4     2.3620    -5.5330    -9.9800	C.3	1	noname	0.0593
8	O2     3.4660    -6.4100   -10.2770	O.3	1	noname	-0.3832
9	C5     3.1100    -7.8050   -10.3070	C.3	1	noname	0.0356
10	C6    -0.8270    -2.9000   -13.6280	C.2	1	noname	0.0135
11	C7     0.3100    -2.3410   -13.0180	C.2	1	noname	-0.0086
12	C8     1.0060    -1.2920   -13.6400	C.2	1	noname	-0.0239
13	Cl1     2.4160    -0.5930   -12.8700	Cl	1	noname	-0.0867
14	C9     0.5750    -0.7970   -14.8820	C.2	1	noname	-0.0362
15	C10    -0.5520    -1.3590   -15.5090	C.2	1	noname	-0.0198
16	C11    -1.2490    -2.4120   -14.8860	C.2	1	noname	0.0091
17	O3    -2.3310    -3.0260   -15.4760	O.3	1	noname	-0.2728
18	C12    -3.3680    -2.3570   -16.1940	C.3	1	noname	0.0424
19	S1    -2.8660    -3.6430   -12.0190	S.3	1	noname	-0.2026
20	C13    -4.2890    -4.1320   -12.9600	C.3	1	noname	0.0320
21	O4    -2.7240    -4.5810   -10.9280	O.3	1	noname	-0.2626
22	O5    -2.9370    -2.2240   -11.7420	O.3	1	noname	-0.2626
23	H1    -0.7500    -5.2550   -10.6220	H	1	noname	0.1311
24	H2    -1.9563    -5.9659   -12.8655	H	1	noname	0.0545
25	H3    -0.9500    -5.5080   -14.2441	H	1	noname	0.0545
26	H4     0.5813    -6.4114    -9.1507	H	1	noname	0.0456
27	H5     1.2623    -7.3067   -10.5210	H	1	noname	0.0456
28	H6     2.3705    -4.6896   -10.6705	H	1	noname	0.0579
29	H7     2.4522    -5.1673    -8.9571	H	1	noname	0.0579
30	H8     0.6498    -2.7206   -12.0657	H	1	noname	0.0656
31	H9     1.1083     0.0143   -15.3551	H	1	noname	0.0639
32	H10    -0.8820    -0.9835   -16.4664	H	1	noname	0.0651
33	H11    -4.9381    -4.7525   -12.3421	H	1	noname	0.0417
34	H12    -3.9689    -4.6993   -13.8340	H	1	noname	0.0417
35	H13    -4.8339    -3.2447   -13.2824	H	1	noname	0.0417
36	H14    -4.0935    -3.0880   -16.5509	H	1	noname	0.0535
37	H15    -2.9377    -1.8276   -17.0441	H	1	noname	0.0535
38	H16    -3.8643    -1.6442   -15.5355	H	1	noname	0.0535
39	H17     4.0088    -8.4123   -10.2001	H	1	noname	0.0529
40	H18     2.4252    -8.0227    -9.4874	H	1	noname	0.0529
41	H19     2.6260    -8.0361   -11.2559	H	1	noname	0.0529
42	H20    -2.7684    -5.4774   -11.2688	H	1	noname	0.2352
43	H21    -2.9440    -2.0833   -10.7924	H	1	noname	0.2352
@<TRIPOS>BOND
1	1	2	1
2	1	10	1
3	1	19	1
4	2	3	1
5	3	4	1
6	3	5	2
7	4	6	1
8	6	7	1
9	7	8	1
10	8	9	1
11	10	11	ar
12	10	16	ar
13	11	12	ar
14	12	13	1
15	12	14	ar
16	14	15	ar
17	15	16	ar
18	16	17	1
19	17	18	1
20	19	20	1
21	19	21	1
22	19	22	1
23	4	23	1
24	2	24	1
25	2	25	1
26	6	26	1
27	6	27	1
28	7	28	1
29	7	29	1
30	11	30	1
31	14	31	1
32	15	32	1
33	20	33	1
34	20	34	1
35	20	35	1
36	18	36	1
37	18	37	1
38	18	38	1
39	9	39	1
40	9	40	1
41	9	41	1
42	21	42	1
43	22	43	1
@<TRIPOS>SUBSTRUCTURE
1	noname	1
