MODEL 1
REMARK VINA RESULT:      -5.7      0.000      0.000
REMARK  8 active torsions:
REMARK  status: ('A' for Active; 'I' for Inactive)
REMARK    1  A    between atoms: O1_2  and  C2_3 
REMARK    2  A    between atoms: C2_3  and  C3_4 
REMARK    3  A    between atoms: C3_4  and  N1_5 
REMARK       I    between atoms: N1_5  and  C4_6 
REMARK    4  A    between atoms: C4_6  and  C5_8 
REMARK    5  A    between atoms: C5_8  and  N2_9 
REMARK    6  A    between atoms: N2_9  and  C6_10 
REMARK    7  A    between atoms: N2_9  and  S1_19 
REMARK    8  A    between atoms: C11_16  and  O3_17 
ROOT
ATOM      1  N2  UNK     1      -1.511  -3.923 -12.984  1.00  0.00    -0.265 N 
ENDROOT
BRANCH   1   2
ATOM      2  C5  UNK     1      -1.119  -5.343 -13.180  1.00  0.00     0.244 C 
BRANCH   2   3
ATOM      3  C4  UNK     1       0.139  -5.816 -12.408  1.00  0.00     0.236 C 
ATOM      4  N1  UNK     1       0.082  -5.656 -11.033  1.00  0.00    -0.358 N 
ATOM      5  H8  UNK     1      -0.750  -5.255 -10.622  1.00  0.00     0.162 HD
ATOM      6  O2  UNK     1       1.092  -6.384 -12.911  1.00  0.00    -0.272 OA
BRANCH   4   7
ATOM      7  C3  UNK     1       1.041  -6.312 -10.134  1.00  0.00     0.148 C 
BRANCH   7   8
ATOM      8  C2  UNK     1       2.362  -5.533  -9.980  1.00  0.00     0.186 C 
BRANCH   8   9
ATOM      9  O1  UNK     1       3.466  -6.410 -10.277  1.00  0.00    -0.394 OA
ATOM     10  C1  UNK     1       3.110  -7.805 -10.307  1.00  0.00     0.201 C 
ENDBRANCH   8   9
ENDBRANCH   7   8
ENDBRANCH   4   7
ENDBRANCH   2   3
ENDBRANCH   1   2
BRANCH   1  11
ATOM     11  C6  UNK     1      -0.827  -2.900 -13.628  1.00  0.00     0.080 A 
ATOM     12  C7  UNK     1       0.310  -2.341 -13.018  1.00  0.00     0.057 A 
ATOM     13  C8  UNK     1       1.006  -1.292 -13.640  1.00  0.00     0.036 A 
ATOM     14 Cl1  UNK     1       2.416  -0.593 -12.870  1.00  0.00    -0.084 Cl
ATOM     15  C9  UNK     1       0.575  -0.797 -14.882  1.00  0.00     0.026 A 
ATOM     16  C10 UNK     1      -0.552  -1.359 -15.509  1.00  0.00     0.041 A 
ATOM     17  C11 UNK     1      -1.249  -2.412 -14.886  1.00  0.00     0.095 A 
BRANCH  17  18
ATOM     18  O3  UNK     1      -2.331  -3.026 -15.476  1.00  0.00    -0.354 OA
ATOM     19  C12 UNK     1      -3.368  -2.357 -16.194  1.00  0.00     0.210 C 
ENDBRANCH  17  18
ENDBRANCH   1  11
BRANCH   1  20
ATOM     20  S1  UNK     1      -2.866  -3.643 -12.019  1.00  0.00     0.229 S 
ATOM     21  C13 UNK     1      -4.289  -4.132 -12.960  1.00  0.00     0.186 C 
ATOM     22  O4  UNK     1      -2.724  -4.581 -10.928  1.00  0.00    -0.206 OA
ATOM     23  O5  UNK     1      -2.937  -2.224 -11.742  1.00  0.00    -0.206 OA
ENDBRANCH   1  20
TORSDOF 8
ENDMDL
MODEL 2
REMARK VINA RESULT:      -5.5      1.678      2.374
REMARK  8 active torsions:
REMARK  status: ('A' for Active; 'I' for Inactive)
REMARK    1  A    between atoms: O1_2  and  C2_3 
REMARK    2  A    between atoms: C2_3  and  C3_4 
REMARK    3  A    between atoms: C3_4  and  N1_5 
REMARK       I    between atoms: N1_5  and  C4_6 
REMARK    4  A    between atoms: C4_6  and  C5_8 
REMARK    5  A    between atoms: C5_8  and  N2_9 
REMARK    6  A    between atoms: N2_9  and  C6_10 
REMARK    7  A    between atoms: N2_9  and  S1_19 
REMARK    8  A    between atoms: C11_16  and  O3_17 
ROOT
ATOM      1  N2  UNK     1      -2.181  -3.010 -13.920  1.00  0.00    -0.265 N 
ENDROOT
BRANCH   1   2
ATOM      2  C5  UNK     1      -2.491  -4.358 -14.465  1.00  0.00     0.244 C 
BRANCH   2   3
ATOM      3  C4  UNK     1      -2.192  -5.556 -13.529  1.00  0.00     0.236 C 
ATOM      4  N1  UNK     1      -0.926  -6.106 -13.659  1.00  0.00    -0.358 N 
ATOM      5  H8  UNK     1      -0.288  -5.706 -14.333  1.00  0.00     0.162 HD
ATOM      6  O2  UNK     1      -2.940  -5.963 -12.657  1.00  0.00    -0.272 OA
BRANCH   4   7
ATOM      7  C3  UNK     1      -0.377  -7.036 -12.664  1.00  0.00     0.148 C 
BRANCH   7   8
ATOM      8  C2  UNK     1       1.164  -7.050 -12.629  1.00  0.00     0.186 C 
BRANCH   8   9
ATOM      9  O1  UNK     1       1.637  -5.816 -12.057  1.00  0.00    -0.394 OA
ATOM     10  C1  UNK     1       1.755  -5.846 -10.622  1.00  0.00     0.201 C 
ENDBRANCH   8   9
ENDBRANCH   7   8
ENDBRANCH   4   7
ENDBRANCH   2   3
ENDBRANCH   1   2
BRANCH   1  11
ATOM     11  C6  UNK     1      -0.924  -2.445 -14.091  1.00  0.00     0.080 A 
ATOM     12  C7  UNK     1       0.063  -2.654 -13.112  1.00  0.00     0.057 A 
ATOM     13  C8  UNK     1       1.336  -2.076 -13.251  1.00  0.00     0.036 A 
ATOM     14 Cl1  UNK     1       2.559  -2.331 -12.023  1.00  0.00    -0.084 Cl
ATOM     15  C9  UNK     1       1.634  -1.289 -14.376  1.00  0.00     0.026 A 
ATOM     16  C10 UNK     1       0.660  -1.086 -15.370  1.00  0.00     0.041 A 
ATOM     17  C11 UNK     1      -0.615  -1.667 -15.231  1.00  0.00     0.095 A 
BRANCH  17  18
ATOM     18  O3  UNK     1      -1.591  -1.536 -16.194  1.00  0.00    -0.354 OA
ATOM     19  C12 UNK     1      -2.228  -0.312 -16.560  1.00  0.00     0.210 C 
ENDBRANCH  17  18
ENDBRANCH   1  11
BRANCH   1  20
ATOM     20  S1  UNK     1      -3.452  -2.190 -13.174  1.00  0.00     0.229 S 
ATOM     21  C13 UNK     1      -3.532  -2.762 -11.496  1.00  0.00     0.186 C 
ATOM     22  O4  UNK     1      -3.016  -0.812 -13.143  1.00  0.00    -0.206 OA
ATOM     23  O5  UNK     1      -4.677  -2.540 -13.860  1.00  0.00    -0.206 OA
ENDBRANCH   1  20
TORSDOF 8
ENDMDL
MODEL 3
REMARK VINA RESULT:      -5.4      2.891      4.382
REMARK  8 active torsions:
REMARK  status: ('A' for Active; 'I' for Inactive)
REMARK    1  A    between atoms: O1_2  and  C2_3 
REMARK    2  A    between atoms: C2_3  and  C3_4 
REMARK    3  A    between atoms: C3_4  and  N1_5 
REMARK       I    between atoms: N1_5  and  C4_6 
REMARK    4  A    between atoms: C4_6  and  C5_8 
REMARK    5  A    between atoms: C5_8  and  N2_9 
REMARK    6  A    between atoms: N2_9  and  C6_10 
REMARK    7  A    between atoms: N2_9  and  S1_19 
REMARK    8  A    between atoms: C11_16  and  O3_17 
ROOT
ATOM      1  N2  UNK     1      -0.384  -1.063 -13.113  1.00  0.00    -0.265 N 
ENDROOT
BRANCH   1   2
ATOM      2  C5  UNK     1      -1.299  -0.867 -11.958  1.00  0.00     0.244 C 
BRANCH   2   3
ATOM      3  C4  UNK     1      -2.505  -1.836 -11.872  1.00  0.00     0.236 C 
ATOM      4  N1  UNK     1      -2.177  -3.179 -11.766  1.00  0.00    -0.358 N 
ATOM      5  H8  UNK     1      -1.202  -3.443 -11.749  1.00  0.00     0.162 HD
ATOM      6  O2  UNK     1      -3.672  -1.492 -11.798  1.00  0.00    -0.272 OA
BRANCH   4   7
ATOM      7  C3  UNK     1      -3.168  -4.192 -11.380  1.00  0.00     0.148 C 
BRANCH   7   8
ATOM      8  C2  UNK     1      -2.533  -5.505 -10.880  1.00  0.00     0.186 C 
BRANCH   8   9
ATOM      9  O1  UNK     1      -2.402  -6.419 -11.985  1.00  0.00    -0.394 OA
ATOM     10  C1  UNK     1      -1.044  -6.605 -12.429  1.00  0.00     0.201 C 
ENDBRANCH   8   9
ENDBRANCH   7   8
ENDBRANCH   4   7
ENDBRANCH   2   3
ENDBRANCH   1   2
BRANCH   1  11
ATOM     11  C6  UNK     1      -0.705  -0.562 -14.368  1.00  0.00     0.080 A 
ATOM     12  C7  UNK     1      -0.387   0.772 -14.678  1.00  0.00     0.057 A 
ATOM     13  C8  UNK     1      -0.720   1.308 -15.933  1.00  0.00     0.036 A 
ATOM     14 Cl1  UNK     1      -0.330   2.973 -16.311  1.00  0.00    -0.084 Cl
ATOM     15  C9  UNK     1      -1.366   0.511 -16.892  1.00  0.00     0.026 A 
ATOM     16  C10 UNK     1      -1.675  -0.830 -16.600  1.00  0.00     0.041 A 
ATOM     17  C11 UNK     1      -1.340  -1.368 -15.342  1.00  0.00     0.095 A 
BRANCH  17  18
ATOM     18  O3  UNK     1      -1.581  -2.684 -15.018  1.00  0.00    -0.354 OA
ATOM     19  C12 UNK     1      -2.778  -3.402 -15.321  1.00  0.00     0.210 C 
ENDBRANCH  17  18
ENDBRANCH   1  11
BRANCH   1  20
ATOM     20  S1  UNK     1       1.079  -1.839 -12.791  1.00  0.00     0.229 S 
ATOM     21  C13 UNK     1       2.205  -1.395 -14.089  1.00  0.00     0.186 C 
ATOM     22  O4  UNK     1       1.551  -1.216 -11.575  1.00  0.00    -0.206 OA
ATOM     23  O5  UNK     1       0.846  -3.267 -12.822  1.00  0.00    -0.206 OA
ENDBRANCH   1  20
TORSDOF 8
ENDMDL
MODEL 4
REMARK VINA RESULT:      -5.4      3.797      6.578
REMARK  8 active torsions:
REMARK  status: ('A' for Active; 'I' for Inactive)
REMARK    1  A    between atoms: O1_2  and  C2_3 
REMARK    2  A    between atoms: C2_3  and  C3_4 
REMARK    3  A    between atoms: C3_4  and  N1_5 
REMARK       I    between atoms: N1_5  and  C4_6 
REMARK    4  A    between atoms: C4_6  and  C5_8 
REMARK    5  A    between atoms: C5_8  and  N2_9 
REMARK    6  A    between atoms: N2_9  and  C6_10 
REMARK    7  A    between atoms: N2_9  and  S1_19 
REMARK    8  A    between atoms: C11_16  and  O3_17 
ROOT
ATOM      1  N2  UNK     1       0.505  -1.711 -13.541  1.00  0.00    -0.265 N 
ENDROOT
BRANCH   1   2
ATOM      2  C5  UNK     1       0.792  -1.583 -14.994  1.00  0.00     0.244 C 
BRANCH   2   3
ATOM      3  C4  UNK     1      -0.121  -0.614 -15.787  1.00  0.00     0.236 C 
ATOM      4  N1  UNK     1      -0.367   0.602 -15.170  1.00  0.00    -0.358 N 
ATOM      5  H8  UNK     1       0.051   0.785 -14.268  1.00  0.00     0.162 HD
ATOM      6  O2  UNK     1      -0.536  -0.814 -16.914  1.00  0.00    -0.272 OA
BRANCH   4   7
ATOM      7  C3  UNK     1      -0.953   1.737 -15.895  1.00  0.00     0.148 C 
BRANCH   7   8
ATOM      8  C2  UNK     1      -1.218   2.962 -14.998  1.00  0.00     0.186 C 
BRANCH   8   9
ATOM      9  O1  UNK     1      -0.055   3.218 -14.188  1.00  0.00    -0.394 OA
ATOM     10  C1  UNK     1      -0.287   3.071 -12.774  1.00  0.00     0.201 C 
ENDBRANCH   8   9
ENDBRANCH   7   8
ENDBRANCH   4   7
ENDBRANCH   2   3
ENDBRANCH   1   2
BRANCH   1  11
ATOM     11  C6  UNK     1      -0.575  -2.460 -13.093  1.00  0.00     0.080 A 
ATOM     12  C7  UNK     1      -0.432  -3.850 -12.938  1.00  0.00     0.057 A 
ATOM     13  C8  UNK     1      -1.516  -4.632 -12.505  1.00  0.00     0.036 A 
ATOM     14 Cl1  UNK     1      -1.335  -6.365 -12.324  1.00  0.00    -0.084 Cl
ATOM     15  C9  UNK     1      -2.751  -4.028 -12.216  1.00  0.00     0.026 A 
ATOM     16  C10 UNK     1      -2.902  -2.636 -12.352  1.00  0.00     0.041 A 
ATOM     17  C11 UNK     1      -1.815  -1.852 -12.784  1.00  0.00     0.095 A 
BRANCH  17  18
ATOM     18  O3  UNK     1      -1.895  -0.482 -12.893  1.00  0.00    -0.354 OA
ATOM     19  C12 UNK     1      -2.880   0.339 -12.263  1.00  0.00     0.210 C 
ENDBRANCH  17  18
ENDBRANCH   1  11
BRANCH   1  20
ATOM     20  S1  UNK     1       1.601  -0.977 -12.490  1.00  0.00     0.229 S 
ATOM     21  C13 UNK     1       2.800  -2.207 -12.042  1.00  0.00     0.186 C 
ATOM     22  O4  UNK     1       2.274   0.006 -13.309  1.00  0.00    -0.206 OA
ATOM     23  O5  UNK     1       0.879  -0.556 -11.309  1.00  0.00    -0.206 OA
ENDBRANCH   1  20
TORSDOF 8
ENDMDL
MODEL 5
REMARK VINA RESULT:      -5.4      2.439      2.973
REMARK  8 active torsions:
REMARK  status: ('A' for Active; 'I' for Inactive)
REMARK    1  A    between atoms: O1_2  and  C2_3 
REMARK    2  A    between atoms: C2_3  and  C3_4 
REMARK    3  A    between atoms: C3_4  and  N1_5 
REMARK       I    between atoms: N1_5  and  C4_6 
REMARK    4  A    between atoms: C4_6  and  C5_8 
REMARK    5  A    between atoms: C5_8  and  N2_9 
REMARK    6  A    between atoms: N2_9  and  C6_10 
REMARK    7  A    between atoms: N2_9  and  S1_19 
REMARK    8  A    between atoms: C11_16  and  O3_17 
ROOT
ATOM      1  N2  UNK     1      -1.340  -1.552 -13.383  1.00  0.00    -0.265 N 
ENDROOT
BRANCH   1   2
ATOM      2  C5  UNK     1      -0.378  -2.684 -13.412  1.00  0.00     0.244 C 
BRANCH   2   3
ATOM      3  C4  UNK     1       1.100  -2.330 -13.110  1.00  0.00     0.236 C 
ATOM      4  N1  UNK     1       1.544  -2.680 -11.844  1.00  0.00    -0.358 N 
ATOM      5  H8  UNK     1       0.901  -3.134 -11.210  1.00  0.00     0.162 HD
ATOM      6  O2  UNK     1       1.886  -1.870 -13.919  1.00  0.00    -0.272 OA
BRANCH   4   7
ATOM      7  C3  UNK     1       2.971  -2.693 -11.497  1.00  0.00     0.148 C 
BRANCH   7   8
ATOM      8  C2  UNK     1       3.262  -3.360 -10.138  1.00  0.00     0.186 C 
BRANCH   8   9
ATOM      9  O1  UNK     1       3.286  -4.790 -10.308  1.00  0.00    -0.394 OA
ATOM     10  C1  UNK     1       2.477  -5.503  -9.354  1.00  0.00     0.201 C 
ENDBRANCH   8   9
ENDBRANCH   7   8
ENDBRANCH   4   7
ENDBRANCH   2   3
ENDBRANCH   1   2
BRANCH   1  11
ATOM     11  C6  UNK     1      -1.173  -0.454 -14.217  1.00  0.00     0.080 A 
ATOM     12  C7  UNK     1      -0.734   0.765 -13.672  1.00  0.00     0.057 A 
ATOM     13  C8  UNK     1      -0.578   1.894 -14.491  1.00  0.00     0.036 A 
ATOM     14 Cl1  UNK     1      -0.039   3.413 -13.804  1.00  0.00    -0.084 Cl
ATOM     15  C9  UNK     1      -0.853   1.813 -15.866  1.00  0.00     0.026 A 
ATOM     16  C10 UNK     1      -1.277   0.595 -16.427  1.00  0.00     0.041 A 
ATOM     17  C11 UNK     1      -1.433  -0.539 -15.605  1.00  0.00     0.095 A 
BRANCH  17  18
ATOM     18  O3  UNK     1      -1.804  -1.765 -16.109  1.00  0.00    -0.354 OA
ATOM     19  C12 UNK     1      -3.141  -2.157 -16.421  1.00  0.00     0.210 C 
ENDBRANCH  17  18
ENDBRANCH   1  11
BRANCH   1  20
ATOM     20  S1  UNK     1      -2.669  -1.721 -12.358  1.00  0.00     0.229 S 
ATOM     21  C13 UNK     1      -2.737  -3.424 -11.864  1.00  0.00     0.186 C 
ATOM     22  O4  UNK     1      -2.318  -0.944 -11.191  1.00  0.00    -0.206 OA
ATOM     23  O5  UNK     1      -3.861  -1.389 -13.109  1.00  0.00    -0.206 OA
ENDBRANCH   1  20
TORSDOF 8
ENDMDL
MODEL 6
REMARK VINA RESULT:      -5.2      3.024      4.606
REMARK  8 active torsions:
REMARK  status: ('A' for Active; 'I' for Inactive)
REMARK    1  A    between atoms: O1_2  and  C2_3 
REMARK    2  A    between atoms: C2_3  and  C3_4 
REMARK    3  A    between atoms: C3_4  and  N1_5 
REMARK       I    between atoms: N1_5  and  C4_6 
REMARK    4  A    between atoms: C4_6  and  C5_8 
REMARK    5  A    between atoms: C5_8  and  N2_9 
REMARK    6  A    between atoms: N2_9  and  C6_10 
REMARK    7  A    between atoms: N2_9  and  S1_19 
REMARK    8  A    between atoms: C11_16  and  O3_17 
ROOT
ATOM      1  N2  UNK     1      -1.873  -0.823 -14.328  1.00  0.00    -0.265 N 
ENDROOT
BRANCH   1   2
ATOM      2  C5  UNK     1      -3.057  -0.549 -13.473  1.00  0.00     0.244 C 
BRANCH   2   3
ATOM      3  C4  UNK     1      -3.282  -1.523 -12.289  1.00  0.00     0.236 C 
ATOM      4  N1  UNK     1      -3.303  -2.868 -12.627  1.00  0.00    -0.358 N 
ATOM      5  H8  UNK     1      -3.171  -3.130 -13.594  1.00  0.00     0.162 HD
ATOM      6  O2  UNK     1      -3.343  -1.195 -11.117  1.00  0.00    -0.272 OA
BRANCH   4   7
ATOM      7  C3  UNK     1      -3.207  -3.926 -11.612  1.00  0.00     0.148 C 
BRANCH   7   8
ATOM      8  C2  UNK     1      -2.024  -4.886 -11.843  1.00  0.00     0.186 C 
BRANCH   8   9
ATOM      9  O1  UNK     1      -1.945  -5.814 -10.744  1.00  0.00    -0.394 OA
ATOM     10  C1  UNK     1      -2.854  -5.519  -9.667  1.00  0.00     0.201 C 
ENDBRANCH   8   9
ENDBRANCH   7   8
ENDBRANCH   4   7
ENDBRANCH   2   3
ENDBRANCH   1   2
BRANCH   1  11
ATOM     11  C6  UNK     1      -0.591  -0.519 -13.889  1.00  0.00     0.080 A 
ATOM     12  C7  UNK     1       0.196  -1.530 -13.311  1.00  0.00     0.057 A 
ATOM     13  C8  UNK     1       1.488  -1.242 -12.840  1.00  0.00     0.036 A 
ATOM     14 Cl1  UNK     1       2.461  -2.504 -12.112  1.00  0.00    -0.084 Cl
ATOM     15  C9  UNK     1       2.006   0.059 -12.950  1.00  0.00     0.026 A 
ATOM     16  C10 UNK     1       1.234   1.075 -13.541  1.00  0.00     0.041 A 
ATOM     17  C11 UNK     1      -0.061   0.786 -14.014  1.00  0.00     0.095 A 
BRANCH  17  18
ATOM     18  O3  UNK     1      -0.842   1.733 -14.638  1.00  0.00    -0.354 OA
ATOM     19  C12 UNK     1      -0.428   2.553 -15.731  1.00  0.00     0.210 C 
ENDBRANCH  17  18
ENDBRANCH   1  11
BRANCH   1  20
ATOM     20  S1  UNK     1      -2.171  -1.592 -15.800  1.00  0.00     0.229 S 
ATOM     21  C13 UNK     1      -3.704  -0.953 -16.425  1.00  0.00     0.186 C 
ATOM     22  O4  UNK     1      -1.116  -1.118 -16.668  1.00  0.00    -0.206 OA
ATOM     23  O5  UNK     1      -2.308  -3.010 -15.546  1.00  0.00    -0.206 OA
ENDBRANCH   1  20
TORSDOF 8
ENDMDL
MODEL 7
REMARK VINA RESULT:      -5.2      3.070      4.537
REMARK  8 active torsions:
REMARK  status: ('A' for Active; 'I' for Inactive)
REMARK    1  A    between atoms: O1_2  and  C2_3 
REMARK    2  A    between atoms: C2_3  and  C3_4 
REMARK    3  A    between atoms: C3_4  and  N1_5 
REMARK       I    between atoms: N1_5  and  C4_6 
REMARK    4  A    between atoms: C4_6  and  C5_8 
REMARK    5  A    between atoms: C5_8  and  N2_9 
REMARK    6  A    between atoms: N2_9  and  C6_10 
REMARK    7  A    between atoms: N2_9  and  S1_19 
REMARK    8  A    between atoms: C11_16  and  O3_17 
ROOT
ATOM      1  N2  UNK     1      -0.589  -1.237 -13.382  1.00  0.00    -0.265 N 
ENDROOT
BRANCH   1   2
ATOM      2  C5  UNK     1       0.211  -0.352 -12.496  1.00  0.00     0.244 C 
BRANCH   2   3
ATOM      3  C4  UNK     1       1.700  -0.741 -12.309  1.00  0.00     0.236 C 
ATOM      4  N1  UNK     1       1.925  -1.825 -11.474  1.00  0.00    -0.358 N 
ATOM      5  H8  UNK     1       1.133  -2.288 -11.050  1.00  0.00     0.162 HD
ATOM      6  O2  UNK     1       2.633  -0.233 -12.903  1.00  0.00    -0.272 OA
BRANCH   4   7
ATOM      7  C3  UNK     1       3.226  -2.507 -11.421  1.00  0.00     0.148 C 
BRANCH   7   8
ATOM      8  C2  UNK     1       3.392  -3.405 -10.179  1.00  0.00     0.186 C 
BRANCH   8   9
ATOM      9  O1  UNK     1       2.737  -4.666 -10.416  1.00  0.00    -0.394 OA
ATOM     10  C1  UNK     1       2.622  -5.492  -9.241  1.00  0.00     0.201 C 
ENDBRANCH   8   9
ENDBRANCH   7   8
ENDBRANCH   4   7
ENDBRANCH   2   3
ENDBRANCH   1   2
BRANCH   1  11
ATOM     11  C6  UNK     1      -1.264  -2.337 -12.868  1.00  0.00     0.080 A 
ATOM     12  C7  UNK     1      -0.736  -3.624 -13.070  1.00  0.00     0.057 A 
ATOM     13  C8  UNK     1      -1.410  -4.754 -12.578  1.00  0.00     0.036 A 
ATOM     14 Cl1  UNK     1      -0.752  -6.356 -12.840  1.00  0.00    -0.084 Cl
ATOM     15  C9  UNK     1      -2.616  -4.605 -11.874  1.00  0.00     0.026 A 
ATOM     16  C10 UNK     1      -3.147  -3.321 -11.652  1.00  0.00     0.041 A 
ATOM     17  C11 UNK     1      -2.469  -2.188 -12.144  1.00  0.00     0.095 A 
BRANCH  17  18
ATOM     18  O3  UNK     1      -2.921  -0.907 -11.919  1.00  0.00    -0.354 OA
ATOM     19  C12 UNK     1      -3.939  -0.248 -12.673  1.00  0.00     0.210 C 
ENDBRANCH  17  18
ENDBRANCH   1  11
BRANCH   1  20
ATOM     20  S1  UNK     1      -0.697  -0.780 -15.003  1.00  0.00     0.229 S 
ATOM     21  C13 UNK     1      -0.785   0.992 -15.043  1.00  0.00     0.186 C 
ATOM     22  O4  UNK     1       0.579  -1.164 -15.565  1.00  0.00    -0.206 OA
ATOM     23  O5  UNK     1      -1.918  -1.335 -15.546  1.00  0.00    -0.206 OA
ENDBRANCH   1  20
TORSDOF 8
ENDMDL
MODEL 8
REMARK VINA RESULT:      -5.2      3.629      4.570
REMARK  8 active torsions:
REMARK  status: ('A' for Active; 'I' for Inactive)
REMARK    1  A    between atoms: O1_2  and  C2_3 
REMARK    2  A    between atoms: C2_3  and  C3_4 
REMARK    3  A    between atoms: C3_4  and  N1_5 
REMARK       I    between atoms: N1_5  and  C4_6 
REMARK    4  A    between atoms: C4_6  and  C5_8 
REMARK    5  A    between atoms: C5_8  and  N2_9 
REMARK    6  A    between atoms: N2_9  and  C6_10 
REMARK    7  A    between atoms: N2_9  and  S1_19 
REMARK    8  A    between atoms: C11_16  and  O3_17 
ROOT
ATOM      1  N2  UNK     1       0.098   0.548 -13.486  1.00  0.00    -0.265 N 
ENDROOT
BRANCH   1   2
ATOM      2  C5  UNK     1       1.482   0.376 -12.975  1.00  0.00     0.244 C 
BRANCH   2   3
ATOM      3  C4  UNK     1       2.017  -1.078 -12.930  1.00  0.00     0.236 C 
ATOM      4  N1  UNK     1       2.139  -1.622 -11.661  1.00  0.00    -0.358 N 
ATOM      5  H8  UNK     1       1.879  -1.061 -10.862  1.00  0.00     0.162 HD
ATOM      6  O2  UNK     1       2.234  -1.771 -13.907  1.00  0.00    -0.272 OA
BRANCH   4   7
ATOM      7  C3  UNK     1       2.341  -3.062 -11.449  1.00  0.00     0.148 C 
BRANCH   7   8
ATOM      8  C2  UNK     1       3.328  -3.378 -10.308  1.00  0.00     0.186 C 
BRANCH   8   9
ATOM      9  O1  UNK     1       2.678  -4.224  -9.340  1.00  0.00    -0.394 OA
ATOM     10  C1  UNK     1       2.816  -5.631  -9.611  1.00  0.00     0.201 C 
ENDBRANCH   8   9
ENDBRANCH   7   8
ENDBRANCH   4   7
ENDBRANCH   2   3
ENDBRANCH   1   2
BRANCH   1  11
ATOM     11  C6  UNK     1      -0.728  -0.550 -13.689  1.00  0.00     0.080 A 
ATOM     12  C7  UNK     1      -1.427  -1.096 -12.599  1.00  0.00     0.057 A 
ATOM     13  C8  UNK     1      -2.252  -2.219 -12.775  1.00  0.00     0.036 A 
ATOM     14 Cl1  UNK     1      -3.114  -2.902 -11.411  1.00  0.00    -0.084 Cl
ATOM     15  C9  UNK     1      -2.390  -2.802 -14.046  1.00  0.00     0.026 A 
ATOM     16  C10 UNK     1      -1.708  -2.255 -15.147  1.00  0.00     0.041 A 
ATOM     17  C11 UNK     1      -0.882  -1.128 -14.971  1.00  0.00     0.095 A 
BRANCH  17  18
ATOM     18  O3  UNK     1      -0.226  -0.527 -16.022  1.00  0.00    -0.354 OA
ATOM     19  C12 UNK     1      -0.849   0.237 -17.054  1.00  0.00     0.210 C 
ENDBRANCH  17  18
ENDBRANCH   1  11
BRANCH   1  20
ATOM     20  S1  UNK     1      -0.428   2.135 -13.716  1.00  0.00     0.229 S 
ATOM     21  C13 UNK     1      -2.155   2.062 -14.117  1.00  0.00     0.186 C 
ATOM     22  O4  UNK     1      -0.310   2.740 -12.408  1.00  0.00    -0.206 OA
ATOM     23  O5  UNK     1       0.302   2.693 -14.834  1.00  0.00    -0.206 OA
ENDBRANCH   1  20
TORSDOF 8
ENDMDL
MODEL 9
REMARK VINA RESULT:      -5.0      3.337      5.331
REMARK  8 active torsions:
REMARK  status: ('A' for Active; 'I' for Inactive)
REMARK    1  A    between atoms: O1_2  and  C2_3 
REMARK    2  A    between atoms: C2_3  and  C3_4 
REMARK    3  A    between atoms: C3_4  and  N1_5 
REMARK       I    between atoms: N1_5  and  C4_6 
REMARK    4  A    between atoms: C4_6  and  C5_8 
REMARK    5  A    between atoms: C5_8  and  N2_9 
REMARK    6  A    between atoms: N2_9  and  C6_10 
REMARK    7  A    between atoms: N2_9  and  S1_19 
REMARK    8  A    between atoms: C11_16  and  O3_17 
ROOT
ATOM      1  N2  UNK     1      -2.359  -2.661 -13.999  1.00  0.00    -0.265 N 
ENDROOT
BRANCH   1   2
ATOM      2  C5  UNK     1      -3.410  -1.735 -13.501  1.00  0.00     0.244 C 
BRANCH   2   3
ATOM      3  C4  UNK     1      -2.928  -0.597 -12.567  1.00  0.00     0.236 C 
ATOM      4  N1  UNK     1      -2.870   0.660 -13.149  1.00  0.00    -0.358 N 
ATOM      5  H8  UNK     1      -3.139   0.762 -14.118  1.00  0.00     0.162 HD
ATOM      6  O2  UNK     1      -2.699  -0.721 -11.377  1.00  0.00    -0.272 OA
BRANCH   4   7
ATOM      7  C3  UNK     1      -2.726   1.882 -12.347  1.00  0.00     0.148 C 
BRANCH   7   8
ATOM      8  C2  UNK     1      -1.655   2.847 -12.893  1.00  0.00     0.186 C 
BRANCH   8   9
ATOM      9  O1  UNK     1      -0.349   2.289 -12.655  1.00  0.00    -0.394 OA
ATOM     10  C1  UNK     1       0.473   2.206 -13.835  1.00  0.00     0.201 C 
ENDBRANCH   8   9
ENDBRANCH   7   8
ENDBRANCH   4   7
ENDBRANCH   2   3
ENDBRANCH   1   2
BRANCH   1  11
ATOM     11  C6  UNK     1      -1.043  -2.240 -14.131  1.00  0.00     0.080 A 
ATOM     12  C7  UNK     1      -0.122  -2.531 -13.109  1.00  0.00     0.057 A 
ATOM     13  C8  UNK     1       1.211  -2.098 -13.210  1.00  0.00     0.036 A 
ATOM     14 Cl1  UNK     1       2.352  -2.456 -11.929  1.00  0.00    -0.084 Cl
ATOM     15  C9  UNK     1       1.635  -1.375 -14.337  1.00  0.00     0.026 A 
ATOM     16  C10 UNK     1       0.727  -1.090 -15.372  1.00  0.00     0.041 A 
ATOM     17  C11 UNK     1      -0.609  -1.526 -15.272  1.00  0.00     0.095 A 
BRANCH  17  18
ATOM     18  O3  UNK     1      -1.528  -1.313 -16.275  1.00  0.00    -0.354 OA
ATOM     19  C12 UNK     1      -1.935  -0.033 -16.761  1.00  0.00     0.210 C 
ENDBRANCH  17  18
ENDBRANCH   1  11
BRANCH   1  20
ATOM     20  S1  UNK     1      -2.840  -4.249 -14.305  1.00  0.00     0.229 S 
ATOM     21  C13 UNK     1      -3.195  -5.000 -12.736  1.00  0.00     0.186 C 
ATOM     22  O4  UNK     1      -4.093  -4.110 -15.012  1.00  0.00    -0.206 OA
ATOM     23  O5  UNK     1      -1.734  -4.941 -14.931  1.00  0.00    -0.206 OA
ENDBRANCH   1  20
TORSDOF 8
ENDMDL
