REMARK  3 active torsions:
REMARK  status: ('A' for Active; 'I' for Inactive)
REMARK    1  A    between atoms: C3_4  and  O1_5 
REMARK    2  A    between atoms: C5_7  and  C6_8 
REMARK       I    between atoms: N2_13  and  C10_14 
REMARK    3  A    between atoms: C10_14  and  C11_16 
ROOT
ATOM      1  C6  UNK     1       3.143  -4.910   5.810  1.00  0.00     0.163 C 
ATOM      2  C7  UNK     1       2.686  -4.816   7.295  1.00  0.00     0.199 C 
ATOM      3  O2  UNK     1       1.774  -5.885   7.611  1.00  0.00    -0.387 OA
ATOM      4  C8  UNK     1       0.587  -5.922   6.794  1.00  0.00     0.187 C 
ATOM      5  C9  UNK     1       1.028  -6.110   5.328  1.00  0.00     0.153 C 
ATOM      6  N2  UNK     1       1.969  -5.059   4.894  1.00  0.00    -0.334 N 
ATOM      7  C10 UNK     1       2.020  -4.672   3.555  1.00  0.00     0.256 C 
ATOM      8  O3  UNK     1       3.060  -4.653   2.917  1.00  0.00    -0.267 OA
ENDROOT
BRANCH   1   9
ATOM      9  C5  UNK     1       4.058  -3.717   5.515  1.00  0.00     0.065 A 
ATOM     10  C4  UNK     1       5.438  -3.804   5.674  1.00  0.00     0.087 A 
ATOM     11  C3  UNK     1       6.141  -2.629   5.483  1.00  0.00     0.165 A 
ATOM     12  N1  UNK     1       5.608  -1.488   5.083  1.00  0.00    -0.210 NA
ATOM     13  C2  UNK     1       4.283  -1.527   4.906  1.00  0.00     0.125 A 
ATOM     14  C1  UNK     1       3.619  -0.329   4.276  1.00  0.00     0.093 C 
ATOM     15  N5  UNK     1       3.476  -2.558   5.166  1.00  0.00    -0.236 NA
BRANCH  11  16
ATOM     16  O1  UNK     1       7.440  -2.520   5.726  1.00  0.00    -0.345 OA
ATOM     17  H4  UNK     1       7.526  -1.577   5.507  1.00  0.00     0.219 HD
ENDBRANCH  11  16
ENDBRANCH   1   9
BRANCH   7  18
ATOM     18  C11 UNK     1       0.723  -4.263   2.928  1.00  0.00     0.052 A 
ATOM     19  C12 UNK     1       0.520  -4.281   1.529  1.00  0.00     0.039 A 
ATOM     20  C13 UNK     1      -0.735  -3.876   1.033  1.00  0.00     0.142 A 
ATOM     21  N3  UNK     1      -1.717  -3.463   1.863  1.00  0.00    -0.163 NA
ATOM     22  N4  UNK     1      -1.510  -3.396   3.190  1.00  0.00    -0.162 NA
ATOM     23  C14 UNK     1      -0.326  -3.762   3.724  1.00  0.00     0.158 A 
ENDBRANCH   7  18
TORSDOF 3
